/*---------------------------------------------------------------------------------------------------------------*\
|                                                                                                                 | 
|    ANSA_VERSION: 20.1.2                                                                                         | 
|                                                                                                                 | 
|    file created by  A N S A  Fri Sep  2 11:36:44 2022                                                           | 
|                                                                                                                 | 
|    Output from: /nfs/projects/bounds-aero/boundsThesis/ahmedBody/ahmedSHAP/meshes/a01_baselineMesh_10mil.ansa   | 
|                                                                                                                 | 
\*---------------------------------------------------------------------------------------------------------------*/



FoamFile
{
	version 2.0;
	format binary;
	class volVectorField;
	location "";
	object U;
}
/*---------------------------------------------------------------------------*/
/*---------------------------------------------------------------------------*/


dimensions [0 1 -1 0 0 0 0];

internalField uniform ( 0. 0. 0. );


boundaryField
{
	ahmed_front
	{
		type fixedValue;
		value	 uniform (0. 0. 0.);
	}

	ahmed_sides
	{
		type fixedValue;
		value	 uniform (0. 0. 0.);
	}

	ahmed_top
	{
		type fixedValue;
		value	 uniform (0. 0. 0.);
	}

	ahmed_bottom
	{
		type fixedValue;
		value	 uniform (0. 0. 0.);
	}

	ahmed_slant
	{
		type fixedValue;
		value	 uniform (0. 0. 0.);
	}

	ahmed_rear
	{
		type fixedValue;
		value	 uniform (0. 0. 0.);
	}

	inlet
	{
		type fixedValue;
		value	 uniform (0. 0. 0.);
	}

	side_right
	{
		type fixedValue;
		value	 uniform (0. 0. 0.);
	}

	side_left
	{
		type fixedValue;
		value	 uniform (0. 0. 0.);
	}

	outlet
	{
		type fixedValue;
		value	 uniform (0. 0. 0.);
	}

	top
	{
		type fixedValue;
		value	 uniform (0. 0. 0.);
	}

	bottom
	{
		type fixedValue;
		value	 uniform (0. 0. 0.);
	}


}
