/*---------------------------------------------------------------------------------------------------------------*\
|                                                                                                                 | 
|    ANSA_VERSION: 20.1.2                                                                                         | 
|                                                                                                                 | 
|    file created by  A N S A  Fri Sep  2 11:36:43 2022                                                           | 
|                                                                                                                 | 
|    Output from: /nfs/projects/bounds-aero/boundsThesis/ahmedBody/ahmedSHAP/meshes/a01_baselineMesh_10mil.ansa   | 
|                                                                                                                 | 
\*---------------------------------------------------------------------------------------------------------------*/



FoamFile
{
	version 2.0;
	format binary;
	class dictionary;
	location "";
	object turbulenceProperties;
}
/*---------------------------------------------------------------------------*/
/*---------------------------------------------------------------------------*/

simulationType RAS;

RAS
{
	RASModel laminar;

	turbulence off;

	printCoeffs off;

}
