/*--------------------------------*- C++ -*----------------------------------*\
| =========                 |                                                 |
| \\      /  F ield         | OpenFOAM: The Open Source CFD Toolbox           |
|  \\    /   O peration     | Version:  2112                                  |
|   \\  /    A nd           | Website:  www.openfoam.com                      |
|    \\/     M anipulation  |                                                 |
\*---------------------------------------------------------------------------*/
FoamFile
{
    version     2.0;
    format      ascii;
    arch        "LSB;label=32;scalar=64";
    class       featureEdgeMesh;
    location    "constant/triSurface";
    object      ahmedBody25.eMesh;
}
// * * * * * * * * * * * * * * * * * * * * * * * * * * * * * * * * * * * * * //


// points:

276
(
(-0.948907 0.19438 0.0501205)
(-0.953802 0.194018 0.0504815)
(-0.958673 0.193418 0.0510823)
(-0.963509 0.192579 0.0519215)
(-0.968298 0.191503 0.0529969)
(-0.973028 0.190194 0.054306)
(-0.977689 0.188654 0.0558456)
(-0.982268 0.186888 0.057612)
(-0.986755 0.184899 0.0596011)
(-0.99114 0.182692 0.0618079)
(-0.99541 0.180273 0.0642271)
(-0.999557 0.177647 0.066853)
(-1.00357 0.174821 0.0696792)
(-1.00744 0.171801 0.072699)
(-1.01116 0.168595 0.0759049)
(-1.01471 0.165211 0.0792893)
(-1.0181 0.161656 0.0828441)
(-1.0213 0.157939 0.0865607)
(-1.02432 0.15407 0.0904301)
(-1.02715 0.150057 0.094443)
(-1.02977 0.14591 0.0985897)
(-1.03219 0.14164 0.10286)
(-1.0344 0.137256 0.107244)
(-1.03639 0.132768 0.111732)
(-1.03815 0.128189 0.116311)
(-1.03969 0.123528 0.120972)
(-1.041 0.118798 0.125702)
(-1.04208 0.114009 0.130491)
(-1.04292 0.109173 0.135327)
(-1.04352 0.104302 0.140198)
(-1.04388 -0.0994068 0.145093)
(-1.04352 -0.104302 0.140198)
(-1.04292 -0.109173 0.135327)
(-1.04208 -0.114009 0.130491)
(-1.041 -0.118798 0.125702)
(-1.03969 -0.123528 0.120972)
(-1.03815 -0.128189 0.116311)
(-1.03639 -0.132768 0.111732)
(-1.0344 -0.137256 0.107244)
(-1.03219 -0.14164 0.10286)
(-1.02977 -0.14591 0.0985897)
(-1.02715 -0.150057 0.094443)
(-1.02432 -0.15407 0.0904301)
(-1.0213 -0.157939 0.0865607)
(-1.0181 -0.161656 0.0828441)
(-1.01471 -0.165211 0.0792893)
(-1.01116 -0.168595 0.0759049)
(-1.00744 -0.171801 0.072699)
(-1.00357 -0.174821 0.0696792)
(-0.999557 -0.177647 0.066853)
(-0.99541 -0.180273 0.0642271)
(-0.99114 -0.182692 0.0618079)
(-0.986755 -0.184899 0.0596011)
(-0.982268 -0.186888 0.057612)
(-0.977689 -0.188654 0.0558456)
(-0.973028 -0.190194 0.054306)
(-0.968298 -0.191503 0.0529969)
(-0.963509 -0.192579 0.0519215)
(-0.958673 -0.193418 0.0510823)
(-0.953802 -0.194018 0.0504815)
(-0.948907 -0.19438 0.0501205)
(-1.04388 0.0994068 0.242907)
(-1.04352 0.104302 0.247802)
(-1.04292 0.109173 0.252673)
(-1.04208 0.114009 0.257509)
(-1.041 0.118798 0.262298)
(-1.03969 0.123528 0.267028)
(-1.03815 0.128189 0.271689)
(-1.03639 0.132768 0.276268)
(-1.0344 0.137256 0.280756)
(-1.03219 0.14164 0.28514)
(-1.02977 0.14591 0.28941)
(-1.02715 0.150057 0.293557)
(-1.02432 0.15407 0.29757)
(-1.0213 0.157939 0.301439)
(-1.0181 0.161656 0.305156)
(-1.01471 0.165211 0.308711)
(-1.01116 0.168595 0.312095)
(-1.00744 0.171801 0.315301)
(-1.00357 0.174821 0.318321)
(-0.999557 0.177647 0.321147)
(-0.99541 0.180273 0.323773)
(-0.99114 0.182692 0.326192)
(-0.986755 0.184899 0.328399)
(-0.982268 0.186888 0.330388)
(-0.977689 0.188654 0.332154)
(-0.973028 0.190194 0.333694)
(-0.968298 0.191503 0.335003)
(-0.963509 0.192579 0.336079)
(-0.958673 0.193418 0.336918)
(-0.953802 0.194018 0.337518)
(-0.948907 0.19438 0.33788)
(-0.948907 -0.19438 0.33788)
(-0.953802 -0.194018 0.337518)
(-0.958673 -0.193418 0.336918)
(-0.963509 -0.192579 0.336079)
(-0.968298 -0.191503 0.335003)
(-0.973028 -0.190194 0.333694)
(-0.977689 -0.188654 0.332154)
(-0.982268 -0.186888 0.330388)
(-0.986755 -0.184899 0.328399)
(-0.99114 -0.182692 0.326192)
(-0.99541 -0.180273 0.323773)
(-0.999557 -0.177647 0.321147)
(-1.00357 -0.174821 0.318321)
(-1.00744 -0.171801 0.315301)
(-1.01116 -0.168595 0.312095)
(-1.01471 -0.165211 0.308711)
(-1.0181 -0.161656 0.305156)
(-1.0213 -0.157939 0.301439)
(-1.02432 -0.15407 0.29757)
(-1.02715 -0.150057 0.293557)
(-1.02977 -0.14591 0.28941)
(-1.03219 -0.14164 0.28514)
(-1.0344 -0.137256 0.280756)
(-1.03639 -0.132768 0.276268)
(-1.03815 -0.128189 0.271689)
(-1.03969 -0.123528 0.267028)
(-1.041 -0.118798 0.262298)
(-1.04208 -0.114009 0.257509)
(-1.04292 -0.109173 0.252673)
(-1.04352 -0.104302 0.247802)
(-1.04379 -0.10104 0.194)
(-1.04379 0.10104 0.194)
(-0.944 0.1945 0.05)
(-0.944 -0.1945 0.05)
(-0.95054 0.0648333 0.0502141)
(-0.957053 0.0648333 0.0508555)
(-0.963509 0.0648333 0.0519215)
(-0.969882 0.0648333 0.0534074)
(-0.976144 0.0648333 0.055307)
(-0.982268 0.0648333 0.057612)
(-0.988229 0.0648333 0.0603127)
(-0.994 0.0648333 0.0633975)
(-0.999557 0.0648333 0.066853)
(-1.00488 0.0648333 0.0706647)
(-1.00993 0.0648333 0.074816)
(-1.01471 0.0648333 0.0792893)
(-1.01918 0.0648333 0.0840654)
(-1.02334 0.0648333 0.0891239)
(-1.02715 0.0648333 0.094443)
(-1.0306 0.0648333 0.1)
(-1.03369 0.0648333 0.105771)
(-1.03639 0.0648333 0.111732)
(-1.03869 0.0648333 0.117856)
(-1.04059 0.0648333 0.124118)
(-1.04208 0.0648333 0.130491)
(-1.04314 0.0648333 0.136947)
(-1.04379 0.0648333 0.14346)
(-1.04388 0.0994068 0.145093)
(-1.044 0.0945 0.15)
(-1.04379 -0.0648333 0.14346)
(-1.04314 -0.0648333 0.136947)
(-1.04208 -0.0648333 0.130491)
(-1.04059 -0.0648333 0.124118)
(-1.03869 -0.0648333 0.117856)
(-1.03639 -0.0648333 0.111732)
(-1.03369 -0.0648333 0.105771)
(-1.0306 -0.0648333 0.1)
(-1.02715 -0.0648333 0.094443)
(-1.02334 -0.0648333 0.0891239)
(-1.01918 -0.0648333 0.0840654)
(-1.01471 -0.0648333 0.0792893)
(-1.00993 -0.0648333 0.074816)
(-1.00488 -0.0648333 0.0706647)
(-0.999557 -0.0648333 0.066853)
(-0.994 -0.0648333 0.0633975)
(-0.988229 -0.0648333 0.0603127)
(-0.982268 -0.0648333 0.057612)
(-0.976144 -0.0648333 0.055307)
(-0.969882 -0.0648333 0.0534074)
(-0.963509 -0.0648333 0.0519215)
(-0.957053 -0.0648333 0.0508555)
(-0.95054 -0.0648333 0.0502141)
(-1.044 -0.0945 0.15)
(-1.044 0.0945 0.238)
(-1.044 -0.0945 0.238)
(-1.04379 0.0648333 0.24454)
(-1.04314 0.0648333 0.251053)
(-1.04208 0.0648333 0.257509)
(-1.04059 0.0648333 0.263882)
(-1.03869 0.0648333 0.270144)
(-1.03639 0.0648333 0.276268)
(-1.03369 0.0648333 0.282229)
(-1.0306 0.0648333 0.288)
(-1.02715 0.0648333 0.293557)
(-1.02334 0.0648333 0.298876)
(-1.01918 0.0648333 0.303935)
(-1.01471 0.0648333 0.308711)
(-1.00993 0.0648333 0.313184)
(-1.00488 0.0648333 0.317335)
(-0.999557 0.0648333 0.321147)
(-0.994 0.0648333 0.324603)
(-0.988229 0.0648333 0.327687)
(-0.982268 0.0648333 0.330388)
(-0.976144 0.0648333 0.332693)
(-0.969882 0.0648333 0.334593)
(-0.963509 0.0648333 0.336079)
(-0.957053 0.0648333 0.337145)
(-0.95054 0.0648333 0.337786)
(-0.944 0.1945 0.338)
(-0.95054 -0.0648333 0.337786)
(-0.957053 -0.0648333 0.337145)
(-0.963509 -0.0648333 0.336079)
(-0.969882 -0.0648333 0.334593)
(-0.976144 -0.0648333 0.332693)
(-0.982268 -0.0648333 0.330388)
(-0.988229 -0.0648333 0.327687)
(-0.994 -0.0648333 0.324603)
(-0.999557 -0.0648333 0.321147)
(-1.00488 -0.0648333 0.317335)
(-1.00993 -0.0648333 0.313184)
(-1.01471 -0.0648333 0.308711)
(-1.01918 -0.0648333 0.303935)
(-1.02334 -0.0648333 0.298876)
(-1.02715 -0.0648333 0.293557)
(-1.0306 -0.0648333 0.288)
(-1.03369 -0.0648333 0.282229)
(-1.03639 -0.0648333 0.276268)
(-1.03869 -0.0648333 0.270144)
(-1.04059 -0.0648333 0.263882)
(-1.04208 -0.0648333 0.257509)
(-1.04314 -0.0648333 0.251053)
(-1.04379 -0.0648333 0.24454)
(-1.04388 -0.0994068 0.242907)
(-0.944 -0.1945 0.338)
(-0.95054 -0.194286 0.194)
(-0.957053 -0.193644 0.194)
(-0.963509 -0.192579 0.194)
(-0.969882 -0.191093 0.194)
(-0.976144 -0.189193 0.194)
(-0.982268 -0.186888 0.194)
(-0.988229 -0.184187 0.194)
(-0.994 -0.181103 0.194)
(-0.999557 -0.177647 0.194)
(-1.00488 -0.173835 0.194)
(-1.00993 -0.169684 0.194)
(-1.01471 -0.165211 0.194)
(-1.01918 -0.160435 0.194)
(-1.02334 -0.155376 0.194)
(-1.02715 -0.150057 0.194)
(-1.0306 -0.1445 0.194)
(-1.03369 -0.138729 0.194)
(-1.03639 -0.132768 0.194)
(-1.03869 -0.126644 0.194)
(-1.04059 -0.120382 0.194)
(-1.04208 -0.114009 0.194)
(-1.04314 -0.107553 0.194)
(-1.04314 0.107553 0.194)
(-1.04208 0.114009 0.194)
(-1.04059 0.120382 0.194)
(-1.03869 0.126644 0.194)
(-1.03639 0.132768 0.194)
(-1.03369 0.138729 0.194)
(-1.0306 0.1445 0.194)
(-1.02715 0.150057 0.194)
(-1.02334 0.155376 0.194)
(-1.01918 0.160435 0.194)
(-1.01471 0.165211 0.194)
(-1.00993 0.169684 0.194)
(-1.00488 0.173835 0.194)
(-0.999557 0.177647 0.194)
(-0.994 0.181103 0.194)
(-0.988229 0.184187 0.194)
(-0.982268 0.186888 0.194)
(-0.976144 0.189193 0.194)
(-0.969882 0.191093 0.194)
(-0.963509 0.192579 0.194)
(-0.957053 0.193644 0.194)
(-0.95054 0.194286 0.194)
(-0.2012 0.1945 0.338)
(-7.10543e-17 0.1945 0.244179)
(0 0.1945 0.05)
(-0.2012 -0.1945 0.338)
(-7.10543e-17 -0.1945 0.244179)
(0 -0.1945 0.05)
)


// edges:

822
(
(125 0)
(0 124)
(124 125)
(126 0)
(126 1)
(1 0)
(127 1)
(127 2)
(2 1)
(128 2)
(128 3)
(3 2)
(128 4)
(4 3)
(129 4)
(129 5)
(5 4)
(130 5)
(130 6)
(6 5)
(131 6)
(131 7)
(7 6)
(131 8)
(8 7)
(132 8)
(132 9)
(9 8)
(133 9)
(133 10)
(10 9)
(134 10)
(134 11)
(11 10)
(134 12)
(12 11)
(135 12)
(135 13)
(13 12)
(136 13)
(136 14)
(14 13)
(137 14)
(137 15)
(15 14)
(137 16)
(16 15)
(138 16)
(138 17)
(17 16)
(139 17)
(139 18)
(18 17)
(140 18)
(140 19)
(19 18)
(140 20)
(20 19)
(141 20)
(141 21)
(21 20)
(142 21)
(142 22)
(22 21)
(143 22)
(143 23)
(23 22)
(143 24)
(24 23)
(144 24)
(144 25)
(25 24)
(145 25)
(145 26)
(26 25)
(146 26)
(146 27)
(27 26)
(146 28)
(28 27)
(147 28)
(147 29)
(29 28)
(148 29)
(148 149)
(149 29)
(150 149)
(148 151)
(151 30)
(30 150)
(151 31)
(31 30)
(152 31)
(152 32)
(32 31)
(153 32)
(153 33)
(33 32)
(153 34)
(34 33)
(154 34)
(154 35)
(35 34)
(155 35)
(155 36)
(36 35)
(156 36)
(156 37)
(37 36)
(156 38)
(38 37)
(157 38)
(157 39)
(39 38)
(158 39)
(158 40)
(40 39)
(159 40)
(159 41)
(41 40)
(159 42)
(42 41)
(160 42)
(160 43)
(43 42)
(161 43)
(161 44)
(44 43)
(162 44)
(162 45)
(45 44)
(162 46)
(46 45)
(163 46)
(163 47)
(47 46)
(164 47)
(164 48)
(48 47)
(165 48)
(165 49)
(49 48)
(165 50)
(50 49)
(166 50)
(166 51)
(51 50)
(167 51)
(167 52)
(52 51)
(168 52)
(168 53)
(53 52)
(168 54)
(54 53)
(169 54)
(169 55)
(55 54)
(170 55)
(170 56)
(56 55)
(171 56)
(171 57)
(57 56)
(171 58)
(58 57)
(172 58)
(172 59)
(59 58)
(173 59)
(173 60)
(60 59)
(125 60)
(173 126)
(30 174)
(174 150)
(127 172)
(128 171)
(129 170)
(130 169)
(131 168)
(132 167)
(133 166)
(134 165)
(135 164)
(136 163)
(137 162)
(138 161)
(139 160)
(140 159)
(141 158)
(142 157)
(143 156)
(144 155)
(145 154)
(146 153)
(147 152)
(176 61)
(61 175)
(175 176)
(177 61)
(177 62)
(62 61)
(178 62)
(178 63)
(63 62)
(179 63)
(179 64)
(64 63)
(179 65)
(65 64)
(180 65)
(180 66)
(66 65)
(181 66)
(181 67)
(67 66)
(182 67)
(182 68)
(68 67)
(182 69)
(69 68)
(183 69)
(183 70)
(70 69)
(184 70)
(184 71)
(71 70)
(185 71)
(185 72)
(72 71)
(185 73)
(73 72)
(186 73)
(186 74)
(74 73)
(187 74)
(187 75)
(75 74)
(188 75)
(188 76)
(76 75)
(188 77)
(77 76)
(189 77)
(189 78)
(78 77)
(190 78)
(190 79)
(79 78)
(191 79)
(191 80)
(80 79)
(191 81)
(81 80)
(192 81)
(192 82)
(82 81)
(193 82)
(193 83)
(83 82)
(194 83)
(194 84)
(84 83)
(194 85)
(85 84)
(195 85)
(195 86)
(86 85)
(196 86)
(196 87)
(87 86)
(197 87)
(197 88)
(88 87)
(197 89)
(89 88)
(198 89)
(198 90)
(90 89)
(199 90)
(199 91)
(91 90)
(200 91)
(199 201)
(201 92)
(92 200)
(201 93)
(93 92)
(202 93)
(202 94)
(94 93)
(203 94)
(203 95)
(95 94)
(203 96)
(96 95)
(204 96)
(204 97)
(97 96)
(205 97)
(205 98)
(98 97)
(206 98)
(206 99)
(99 98)
(206 100)
(100 99)
(207 100)
(207 101)
(101 100)
(208 101)
(208 102)
(102 101)
(209 102)
(209 103)
(103 102)
(209 104)
(104 103)
(210 104)
(210 105)
(105 104)
(211 105)
(211 106)
(106 105)
(212 106)
(212 107)
(107 106)
(212 108)
(108 107)
(213 108)
(213 109)
(109 108)
(214 109)
(214 110)
(110 109)
(215 110)
(215 111)
(111 110)
(215 112)
(112 111)
(216 112)
(216 113)
(113 112)
(217 113)
(217 114)
(114 113)
(218 114)
(218 115)
(115 114)
(218 116)
(116 115)
(219 116)
(219 117)
(117 116)
(220 117)
(220 118)
(118 117)
(221 118)
(221 119)
(119 118)
(221 120)
(120 119)
(222 120)
(222 121)
(121 120)
(223 121)
(223 224)
(224 121)
(176 224)
(223 177)
(92 225)
(225 200)
(178 222)
(179 221)
(180 220)
(181 219)
(182 218)
(183 217)
(184 216)
(185 215)
(186 214)
(187 213)
(188 212)
(189 211)
(190 210)
(191 209)
(192 208)
(193 207)
(194 206)
(195 205)
(196 204)
(197 203)
(198 202)
(225 60)
(125 225)
(226 60)
(226 59)
(227 59)
(227 58)
(228 58)
(228 57)
(228 56)
(229 56)
(229 55)
(230 55)
(230 54)
(231 54)
(231 53)
(231 52)
(232 52)
(232 51)
(233 51)
(233 50)
(234 50)
(234 49)
(234 48)
(235 48)
(235 47)
(236 47)
(236 46)
(237 46)
(237 45)
(237 44)
(238 44)
(238 43)
(239 43)
(239 42)
(240 42)
(240 41)
(240 40)
(241 40)
(241 39)
(242 39)
(242 38)
(243 38)
(243 37)
(243 36)
(244 36)
(244 35)
(245 35)
(245 34)
(246 34)
(246 33)
(246 32)
(247 32)
(247 31)
(121 31)
(247 121)
(121 122)
(122 31)
(224 122)
(224 30)
(30 122)
(176 174)
(92 226)
(93 226)
(93 227)
(94 227)
(94 228)
(95 228)
(96 228)
(96 229)
(97 229)
(97 230)
(98 230)
(98 231)
(99 231)
(100 231)
(100 232)
(101 232)
(101 233)
(102 233)
(102 234)
(103 234)
(104 234)
(104 235)
(105 235)
(105 236)
(106 236)
(106 237)
(107 237)
(108 237)
(108 238)
(109 238)
(109 239)
(110 239)
(110 240)
(111 240)
(112 240)
(112 241)
(113 241)
(113 242)
(114 242)
(114 243)
(115 243)
(116 243)
(116 244)
(117 244)
(117 245)
(118 245)
(118 246)
(119 246)
(120 246)
(120 247)
(150 175)
(61 149)
(61 123)
(123 149)
(62 123)
(62 29)
(29 123)
(248 29)
(62 248)
(248 28)
(249 28)
(249 27)
(249 26)
(250 26)
(250 25)
(251 25)
(251 24)
(252 24)
(252 23)
(252 22)
(253 22)
(253 21)
(254 21)
(254 20)
(255 20)
(255 19)
(255 18)
(256 18)
(256 17)
(257 17)
(257 16)
(258 16)
(258 15)
(258 14)
(259 14)
(259 13)
(260 13)
(260 12)
(261 12)
(261 11)
(261 10)
(262 10)
(262 9)
(263 9)
(263 8)
(264 8)
(264 7)
(264 6)
(265 6)
(265 5)
(266 5)
(266 4)
(267 4)
(267 3)
(267 2)
(268 2)
(268 1)
(269 1)
(269 0)
(91 124)
(269 91)
(200 124)
(63 248)
(63 249)
(64 249)
(65 249)
(65 250)
(66 250)
(66 251)
(67 251)
(67 252)
(68 252)
(69 252)
(69 253)
(70 253)
(70 254)
(71 254)
(71 255)
(72 255)
(73 255)
(73 256)
(74 256)
(74 257)
(75 257)
(75 258)
(76 258)
(77 258)
(77 259)
(78 259)
(78 260)
(79 260)
(79 261)
(80 261)
(81 261)
(81 262)
(82 262)
(82 263)
(83 263)
(83 264)
(84 264)
(85 264)
(85 265)
(86 265)
(86 266)
(87 266)
(87 267)
(88 267)
(89 267)
(89 268)
(90 268)
(90 269)
(200 270)
(270 271)
(271 272)
(272 124)
(225 273)
(273 270)
(274 273)
(275 274)
(125 275)
(275 272)
(271 274)
(125 126)
(148 150)
(151 150)
(173 125)
(176 177)
(199 200)
(201 200)
(223 176)
(225 226)
(269 124)
(172 128)
(170 130)
(169 131)
(167 133)
(165 135)
(164 136)
(163 137)
(161 139)
(160 140)
(159 141)
(157 143)
(155 145)
(153 147)
(223 178)
(221 180)
(219 182)
(217 184)
(213 188)
(209 192)
(204 197)
(224 174)
(270 274)
(126 127)
(127 128)
(128 129)
(129 130)
(130 131)
(131 132)
(132 133)
(133 134)
(134 135)
(135 136)
(136 137)
(137 138)
(138 139)
(139 140)
(140 141)
(141 142)
(142 143)
(143 144)
(144 145)
(145 146)
(146 147)
(147 148)
(151 152)
(152 153)
(153 154)
(154 155)
(155 156)
(156 157)
(157 158)
(158 159)
(159 160)
(160 161)
(161 162)
(162 163)
(163 164)
(164 165)
(165 166)
(166 167)
(167 168)
(168 169)
(169 170)
(170 171)
(171 172)
(172 173)
(173 127)
(171 129)
(168 132)
(166 134)
(162 138)
(158 142)
(156 144)
(154 146)
(152 148)
(177 178)
(178 179)
(179 180)
(180 181)
(181 182)
(182 183)
(183 184)
(184 185)
(185 186)
(186 187)
(187 188)
(188 189)
(189 190)
(190 191)
(191 192)
(192 193)
(193 194)
(194 195)
(195 196)
(196 197)
(197 198)
(198 199)
(201 202)
(202 203)
(203 204)
(204 205)
(205 206)
(206 207)
(207 208)
(208 209)
(209 210)
(210 211)
(211 212)
(212 213)
(213 214)
(214 215)
(215 216)
(216 217)
(217 218)
(218 219)
(219 220)
(220 221)
(221 222)
(222 223)
(222 179)
(220 181)
(218 183)
(216 185)
(215 186)
(214 187)
(212 189)
(211 190)
(210 191)
(208 193)
(207 194)
(206 195)
(205 196)
(203 198)
(202 199)
(226 227)
(227 228)
(228 229)
(229 230)
(230 231)
(231 232)
(232 233)
(233 234)
(234 235)
(235 236)
(236 237)
(237 238)
(238 239)
(239 240)
(240 241)
(241 242)
(242 243)
(243 244)
(244 245)
(245 246)
(246 247)
(175 149)
(248 249)
(249 250)
(250 251)
(251 252)
(252 253)
(253 254)
(254 255)
(255 256)
(256 257)
(257 258)
(258 259)
(259 260)
(260 261)
(261 262)
(262 263)
(263 264)
(264 265)
(265 266)
(266 267)
(267 268)
(268 269)
(270 124)
(271 124)
(273 200)
(150 176)
(125 273)
(125 274)
(271 275)
(272 125)
)

// * * * * * * * * * * * * * * * * * * * * * * * * * * * * * * * * * * * * * //


// ************************************************************************* //
